 6

 H         3.489000        8.049000       11.187000
 H         2.708000        4.676000        9.524000
 O         2.347000        5.641000        9.673000
 C         3.271000        6.330000       10.244000
 O         4.485000        6.022000       10.305000
 O         2.707000        7.473000       10.736000
